.subckt LT5400-4 1 2 3 4 5 6 7 8
R1 8 1 1K
R2 7 2 1K
R3 6 3 1K
R4 5 4 1K
.ends LT5400-4