.subckt LT5400-1 1 2 3 4 5 6 7 8
R1 8 1 10K
R2 7 2 10K
R3 6 3 10K
R4 5 4 10K
.ends LT5400-1